SOL 101
CEND
ECHO=NONE
AUTOSPC(NOPRINT)=YES
SUBCASE       1
OLOAD(PLOT,SORT1)=ALL
TITLE = LoadCase-1
LOAD =        2
SPC =        2
DISPLACEMENT(plot,SORT1) =             ALL
STRAIN(PLOT,SORT1,FIBER) =             ALL
STRESS(PLOT,SORT1) =             ALL
GPSTRAIN(PLOT,SORT1) =             ALL
GPSTRESS(PLOT,SORT1) =             ALL
STRFIELD=all
OUTPUT(POST)
set 9=ALL
volume 9 set 9
BEGIN BULK
mdlprm,hdf5,2
PARAM,TABS,273.16
LOAD,2,1.0,1.0,1,,,,,
MAT1,1,210000.0,,0.27,7.86E-9,,,,
PSOLID,3,1,,,,,,
GRID,9,,0.0,0.0,10.0,,,
GRID,10,,0.9659258262890683,0.0,10.0,,,
GRID,11,,0.0,0.25881904510252074,10.0,,,
GRID,12,,0.9659258262890683,0.25881904510252074,10.0,,,
GRID,13,,0.0,0.0,9.0,,,
GRID,14,,0.9659258262890683,0.0,9.0,,,
GRID,15,,0.0,0.25881904510252074,9.0,,,
GRID,16,,0.9659258262890683,0.25881904510252074,9.0,,,
GRID,17,,0.0,0.0,8.0,,,
GRID,18,,0.9659258262890683,0.0,8.0,,,
GRID,19,,0.0,0.25881904510252074,8.0,,,
GRID,20,,0.9659258262890683,0.25881904510252074,8.0,,,
GRID,21,,0.0,0.0,7.0,,,
GRID,22,,0.9659258262890683,0.0,7.0,,,
GRID,23,,0.0,0.25881904510252074,7.0,,,
GRID,24,,0.9659258262890683,0.25881904510252074,7.0,,,
GRID,25,,0.0,0.0,6.0,,,
GRID,26,,0.9659258262890683,0.0,6.0,,,
GRID,27,,0.0,0.25881904510252074,6.0,,,
GRID,28,,0.9659258262890683,0.25881904510252074,6.0,,,
$ ... 24 like lines cut
CHEXA,2,3,9,11,12,10,13,15,
,16,14,,,,,,,
CHEXA,3,3,13,15,16,14,17,19,
,20,18,,,,,,,
CHEXA,4,3,17,19,20,18,21,23,
,24,22,,,,,,,
CHEXA,5,3,21,23,24,22,25,27,
,28,26,,,,,,,
CHEXA,6,3,25,27,28,26,29,31,
,32,30,,,,,,,
CHEXA,7,3,29,31,32,30,33,35,
,36,34,,,,,,,
CHEXA,8,3,33,35,36,34,37,39,
,40,38,,,,,,,
CHEXA,9,3,37,39,40,38,41,43,
,44,42,,,,,,,
CHEXA,10,3,41,43,44,42,45,47,
,48,46,,,,,,,
CHEXA,11,3,45,47,48,46,49,51,
,52,50,,,,,,,
SPC1,1,123456,49,50,51,52,
SPCADD,2,1,,,,,,,
FORCE,1,9,,50.0,1.0,0.0,0.0,
FORCE,1,10,,50.0,1.0,0.0,0.0,
FORCE,1,11,,50.0,1.0,0.0,0.0,
FORCE,1,12,,50.0,1.0,0.0,0.0,
ENDDATA
